*Heading
** Job name: Job-2 Model name: Model-1
** Generated by: Abaqus/CAE 2023.HF2
*Preprint, echo=NO, model=NO, history=NO, contact=NO
**
** PARTS
**
*Part, name=Part-21
*End Part
**  
**
** ASSEMBLY
**
*Assembly, name=Assembly
**  
*Instance, name=Part-21-1, part=Part-21
*Node
      1,         -40.,          2.5,          10.
      2,         -40.,           0.,          10.
      3,         -40.,           0.,           0.
      4,         -40.,          2.5,           0.
      5,         -45.,           0.,          10.
      6,         -45.,           0.,           0.
      7,         -45.,          2.5,           0.
      8,         -45.,          2.5,          10.
      9,         -40.,         -2.5,          10.
     10,         -40.,         -2.5,           0.
     11,         -45.,         -2.5,          10.
     12,         -45.,         -2.5,           0.
     13,         -40.,           0.,         -10.
     14,         -40.,          2.5,         -10.
     15,         -45.,           0.,         -10.
     16,         -45.,          2.5,         -10.
     17,         -40.,         -2.5,         -10.
     18,         -45.,         -2.5,         -10.
     19,         -40.,           0.,         -20.
     20,         -40.,          2.5,         -20.
** ... 15593 like lines cut
*Element, type=C3D20RT
  1,  118,  935, 2803,  863,    1,   67,  827,   88, 4246, 4245, 4244, 4243, 4247, 4248, 4249,
     4250, 4252, 4251, 4253, 4254
  2,  935,  936, 2804, 2803,   67,   68,  828,  827, 4257, 4256, 4255, 4245, 4258, 4259, 4260,
     4248, 4251, 4261, 4262, 4253
  3,  936,  123,  899, 2804,   68,    2,   69,  828, 4265, 4264, 4263, 4256, 4266, 4267, 4268,
     4259, 4261, 4269, 4270, 4262
  4,  863, 2803, 2805,  864,   88,  827,  829,   87, 4244, 4273, 4272, 4271, 4249, 4274, 4275,
     4276, 4254, 4253, 4277, 4278
  5, 2803, 2804, 2806, 2805,  827,  828,  830,  829, 4255, 4280, 4279, 4273, 4260, 4281, 4282,
     4274, 4253, 4262, 4283, 4277
  6, 2804,  899,  900, 2806,  828,   69,   70,  830, 4263, 4285, 4284, 4280, 4268, 4286, 4287,
     4281, 4262, 4270, 4288, 4283
  7,  864, 2805, 2807,  865,   87,  829,  831,   86, 4272, 4291, 4290, 4289, 4275, 4292, 4293,
     4294, 4278, 4277, 4295, 4296
  8, 2805, 2806, 2808, 2807,  829,  830,  832,  831, 4279, 4298, 4297, 4291, 4282, 4299, 4300,
     4292, 4277, 4283, 4301, 4295
  9, 2806,  900,  901, 2808,  830,   70,   71,  832, 4284, 4303, 4302, 4298, 4287, 4304, 4305,
     4299, 4283, 4288, 4306, 4301
 10,  865, 2807, 2809,  866,   86,  831,  833,   85, 4290, 4309, 4308, 4307, 4293, 4310, 4311,
     4312, 4296, 4295, 4313, 4314
** ... 5980 like lines cut
*Nset, nset=Set-1
    1,    2,    3,    4,    5,    6,    7,    8,   67,   68,   69,   70,   71,   72,   73,   74
   75,   76,   77,   78,   79,   80,   81,   82,   83,   84,   85,   86,   87,   88,   89,   90
   91,   92,   93,   94,   95,   96,   97,   98,   99,  100,  101,  102,  103,  104,  105,  106
  107,  108,  109,  110,  111,  112,  113,  114,  115,  116,  117,  118,  119,  120,  121,  122
  123,  124,  125,  126,  827,  828,  829,  830,  831,  832,  833,  834,  835,  836,  837,  838
  839,  840,  841,  842,  843,  844,  845,  846,  847,  848,  849,  850,  851,  852,  853,  854
  855,  856,  857,  858,  859,  860,  861,  862,  863,  864,  865,  866,  867,  868,  869,  870
  871,  872,  873,  874,  875,  876,  877,  878,  879,  880,  881,  882,  883,  884,  885,  886
  887,  888,  889,  890,  891,  892,  893,  894,  895,  896,  897,  898,  899,  900,  901,  902
  903,  904,  905,  906,  907,  908,  909,  910,  911,  912,  913,  914,  915,  916,  917,  918
  919,  920,  921,  922,  923,  924,  925,  926,  927,  928,  929,  930,  931,  932,  933,  934
  935,  936,  937,  938,  939,  940,  941,  942,  943,  944,  945,  946,  947,  948,  949,  950
 2803, 2804, 2805, 2806, 2807, 2808, 2809, 2810, 2811, 2812, 2813, 2814, 2815, 2816, 2817, 2818
 2819, 2820, 2821, 2822, 2823, 2824, 2825, 2826, 2827, 2828, 2829, 2830, 2831, 2832, 2833, 2834
 2835, 2836, 2837, 2838, 2839, 2840, 2841, 2842, 2843, 2844, 2845, 2846, 2847, 2848, 2849, 2850
 2851, 2852, 2853, 2854, 2855, 2856, 2857, 2858, 2859, 2860, 2861, 2862, 2863, 2864, 2865, 2866
 2867, 2868, 2869, 2870, 2871, 2872, 2873, 2874, 4243, 4244, 4245, 4246, 4247, 4248, 4249, 4250
 4251, 4252, 4253, 4254, 4255, 4256, 4257, 4258, 4259, 4260, 4261, 4262, 4263, 4264, 4265, 4266
 4267, 4268, 4269, 4270, 4271, 4272, 4273, 4274, 4275, 4276, 4277, 4278, 4279, 4280, 4281, 4282
 4283, 4284, 4285, 4286, 4287, 4288, 4289, 4290, 4291, 4292, 4293, 4294, 4295, 4296, 4297, 4298
** ... 38 like lines cut
*Elset, elset=Set-1, generate
   1,  150,    1
*Nset, nset=Set-2
    3,    4,    6,    7,   13,   14,   15,   16,   78,   79,  100,  101,  111,  112,  113,  114
  119,  120,  121,  122,  161,  162,  163,  164,  165,  166,  167,  168,  169,  170,  171,  172
  173,  174,  175,  176,  177,  178,  179,  180,  181,  182,  183,  184,  185,  186,  187,  188
  189,  190,  191,  192,  193,  194,  195,  196,  197,  198,  199,  200,  201,  202,  203,  204
  205,  206,  207,  208,  943,  944,  945,  946,  947,  948,  949,  950, 1039, 1040, 1041, 1042
 1043, 1044, 1045, 1046, 1047, 1048, 1049, 1050, 1051, 1052, 1053, 1054, 1055, 1056, 1057, 1058
 1059, 1060, 1061, 1062, 1063, 1064, 1065, 1066, 1067, 1068, 1069, 1070, 1071, 1072, 1073, 1074
 1075, 1076, 1077, 1078, 1079, 1080, 1081, 1082, 1083, 1084, 1085, 1086, 1087, 1088, 1089, 1090
 1091, 1092, 1093, 1094, 1095, 1096, 1097, 1098, 1099, 1100, 1101, 1102, 1103, 1104, 1105, 1106
 1107, 1108, 1109, 1110, 1111, 1112, 1113, 1114, 1115, 1116, 1117, 1118, 1119, 1120, 1121, 1122
 1123, 1124, 1125, 1126, 1127, 1128, 1129, 1130, 1131, 1132, 1133, 1134, 1135, 1136, 1137, 1138
 1139, 1140, 1141, 1142, 1143, 1144, 1145, 1146, 1147, 1148, 1149, 1150, 1151, 1152, 1153, 1154
 2947, 2948, 2949, 2950, 2951, 2952, 2953, 2954, 2955, 2956, 2957, 2958, 2959, 2960, 2961, 2962
 2963, 2964, 2965, 2966, 2967, 2968, 2969, 2970, 2971, 2972, 2973, 2974, 2975, 2976, 2977, 2978
 2979, 2980, 2981, 2982, 2983, 2984, 2985, 2986, 2987, 2988, 2989, 2990, 2991, 2992, 2993, 2994
 2995, 2996, 2997, 2998, 2999, 3000, 3001, 3002, 3003, 3004, 3005, 3006, 3007, 3008, 3009, 3010
 3011, 3012, 3013, 3014, 3015, 3016, 3017, 3018, 4416, 4419, 4421, 4422, 4423, 4426, 4427, 4428
 4431, 4432, 4540, 4542, 4543, 4544, 4546, 4547, 4549, 4657, 4659, 4660, 4661, 4663, 4664, 4666
 4774, 4776, 4777, 4778, 4780, 4781, 4783, 4891, 4893, 4894, 4895, 4897, 4898, 4900, 5444, 5445
 5446, 5447, 5448, 5449, 5450, 5451, 5452, 5453, 5454, 5455, 5456, 5457, 5458, 5459, 5460, 5461
** ... 38 like lines cut
*Elset, elset=Set-2, generate
 301,  450,    1
*Nset, nset=Set-3
   13,   14,   15,   16,   19,   20,   21,   22,  170,  171,  190,  191,  201,  202,  203,  204
  205,  206,  207,  208,  235,  236,  237,  238,  239,  240,  241,  242,  243,  244,  245,  246
  247,  248,  249,  250,  251,  252,  253,  254,  255,  256,  257,  258,  259,  260,  261,  262
  263,  264,  265,  266,  267,  268,  269,  270,  271,  272,  273,  274,  275,  276,  277,  278
  279,  280,  281,  282, 1147, 1148, 1149, 1150, 1151, 1152, 1153, 1154, 1235, 1236, 1237, 1238
 1239, 1240, 1241, 1242, 1243, 1244, 1245, 1246, 1247, 1248, 1249, 1250, 1251, 1252, 1253, 1254
 1255, 1256, 1257, 1258, 1259, 1260, 1261, 1262, 1263, 1264, 1265, 1266, 1267, 1268, 1269, 1270
 1271, 1272, 1273, 1274, 1275, 1276, 1277, 1278, 1279, 1280, 1281, 1282, 1283, 1284, 1285, 1286
 1287, 1288, 1289, 1290, 1291, 1292, 1293, 1294, 1295, 1296, 1297, 1298, 1299, 1300, 1301, 1302
 1303, 1304, 1305, 1306, 1307, 1308, 1309, 1310, 1311, 1312, 1313, 1314, 1315, 1316, 1317, 1318
 1319, 1320, 1321, 1322, 1323, 1324, 1325, 1326, 1327, 1328, 1329, 1330, 1331, 1332, 1333, 1334
 1335, 1336, 1337, 1338, 1339, 1340, 1341, 1342, 1343, 1344, 1345, 1346, 1347, 1348, 1349, 1350
 3091, 3092, 3093, 3094, 3095, 3096, 3097, 3098, 3099, 3100, 3101, 3102, 3103, 3104, 3105, 3106
 3107, 3108, 3109, 3110, 3111, 3112, 3113, 3114, 3115, 3116, 3117, 3118, 3119, 3120, 3121, 3122
 3123, 3124, 3125, 3126, 3127, 3128, 3129, 3130, 3131, 3132, 3133, 3134, 3135, 3136, 3137, 3138
 3139, 3140, 3141, 3142, 3143, 3144, 3145, 3146, 3147, 3148, 3149, 3150, 3151, 3152, 3153, 3154
 3155, 3156, 3157, 3158, 3159, 3160, 3161, 3162, 5607, 5610, 5612, 5613, 5614, 5617, 5618, 5619
 5622, 5623, 5724, 5726, 5727, 5728, 5730, 5731, 5733, 5834, 5836, 5837, 5838, 5840, 5841, 5843
 5944, 5946, 5947, 5948, 5950, 5951, 5953, 6054, 6056, 6057, 6058, 6060, 6061, 6063, 6574, 6575
 6576, 6577, 6578, 6579, 6580, 6581, 6582, 6583, 6584, 6585, 6586, 6587, 6588, 6589, 6590, 6591
** ... 38 like lines cut
*Elset, elset=Set-3, generate
 601,  750,    1
*Nset, nset=Set-4
   19,   20,   21,   22,   25,   26,   27,   28,  244,  245,  264,  265,  275,  276,  277,  278
  279,  280,  281,  282,  309,  310,  311,  312,  313,  314,  315,  316,  317,  318,  319,  320
  321,  322,  323,  324,  325,  326,  327,  328,  329,  330,  331,  332,  333,  334,  335,  336
  337,  338,  339,  340,  341,  342,  343,  344,  345,  346,  347,  348,  349,  350,  351,  352
  353,  354,  355,  356, 1343, 1344, 1345, 1346, 1347, 1348, 1349, 1350, 1431, 1432, 1433, 1434
 1435, 1436, 1437, 1438, 1439, 1440, 1441, 1442, 1443, 1444, 1445, 1446, 1447, 1448, 1449, 1450
 1451, 1452, 1453, 1454, 1455, 1456, 1457, 1458, 1459, 1460, 1461, 1462, 1463, 1464, 1465, 1466
 1467, 1468, 1469, 1470, 1471, 1472, 1473, 1474, 1475, 1476, 1477, 1478, 1479, 1480, 1481, 1482
 1483, 1484, 1485, 1486, 1487, 1488, 1489, 1490, 1491, 1492, 1493, 1494, 1495, 1496, 1497, 1498
 1499, 1500, 1501, 1502, 1503, 1504, 1505, 1506, 1507, 1508, 1509, 1510, 1511, 1512, 1513, 1514
 1515, 1516, 1517, 1518, 1519, 1520, 1521, 1522, 1523, 1524, 1525, 1526, 1527, 1528, 1529, 1530
 1531, 1532, 1533, 1534, 1535, 1536, 1537, 1538, 1539, 1540, 1541, 1542, 1543, 1544, 1545, 1546
 3235, 3236, 3237, 3238, 3239, 3240, 3241, 3242, 3243, 3244, 3245, 3246, 3247, 3248, 3249, 3250
 3251, 3252, 3253, 3254, 3255, 3256, 3257, 3258, 3259, 3260, 3261, 3262, 3263, 3264, 3265, 3266
 3267, 3268, 3269, 3270, 3271, 3272, 3273, 3274, 3275, 3276, 3277, 3278, 3279, 3280, 3281, 3282
 3283, 3284, 3285, 3286, 3287, 3288, 3289, 3290, 3291, 3292, 3293, 3294, 3295, 3296, 3297, 3298
 3299, 3300, 3301, 3302, 3303, 3304, 3305, 3306, 6737, 6740, 6742, 6743, 6744, 6747, 6748, 6749
 6752, 6753, 6854, 6856, 6857, 6858, 6860, 6861, 6863, 6964, 6966, 6967, 6968, 6970, 6971, 6973
 7074, 7076, 7077, 7078, 7080, 7081, 7083, 7184, 7186, 7187, 7188, 7190, 7191, 7193, 7704, 7705
 7706, 7707, 7708, 7709, 7710, 7711, 7712, 7713, 7714, 7715, 7716, 7717, 7718, 7719, 7720, 7721
** ... 38 like lines cut
*Elset, elset=Set-4, generate
  901,  1050,     1
*Nset, nset=Set-5
   25,   26,   27,   28,   31,   32,   33,   34,  318,  319,  338,  339,  349,  350,  351,  352
  353,  354,  355,  356,  383,  384,  385,  386,  387,  388,  389,  390,  391,  392,  393,  394
  395,  396,  397,  398,  399,  400,  401,  402,  403,  404,  405,  406,  407,  408,  409,  410
  411,  412,  413,  414,  415,  416,  417,  418,  419,  420,  421,  422,  423,  424,  425,  426
  427,  428,  429,  430, 1539, 1540, 1541, 1542, 1543, 1544, 1545, 1546, 1627, 1628, 1629, 1630
 1631, 1632, 1633, 1634, 1635, 1636, 1637, 1638, 1639, 1640, 1641, 1642, 1643, 1644, 1645, 1646
 1647, 1648, 1649, 1650, 1651, 1652, 1653, 1654, 1655, 1656, 1657, 1658, 1659, 1660, 1661, 1662
 1663, 1664, 1665, 1666, 1667, 1668, 1669, 1670, 1671, 1672, 1673, 1674, 1675, 1676, 1677, 1678
 1679, 1680, 1681, 1682, 1683, 1684, 1685, 1686, 1687, 1688, 1689, 1690, 1691, 1692, 1693, 1694
 1695, 1696, 1697, 1698, 1699, 1700, 1701, 1702, 1703, 1704, 1705, 1706, 1707, 1708, 1709, 1710
 1711, 1712, 1713, 1714, 1715, 1716, 1717, 1718, 1719, 1720, 1721, 1722, 1723, 1724, 1725, 1726
 1727, 1728, 1729, 1730, 1731, 1732, 1733, 1734, 1735, 1736, 1737, 1738, 1739, 1740, 1741, 1742
 3379, 3380, 3381, 3382, 3383, 3384, 3385, 3386, 3387, 3388, 3389, 3390, 3391, 3392, 3393, 3394
 3395, 3396, 3397, 3398, 3399, 3400, 3401, 3402, 3403, 3404, 3405, 3406, 3407, 3408, 3409, 3410
 3411, 3412, 3413, 3414, 3415, 3416, 3417, 3418, 3419, 3420, 3421, 3422, 3423, 3424, 3425, 3426
 3427, 3428, 3429, 3430, 3431, 3432, 3433, 3434, 3435, 3436, 3437, 3438, 3439, 3440, 3441, 3442
 3443, 3444, 3445, 3446, 3447, 3448, 3449, 3450, 7867, 7870, 7872, 7873, 7874, 7877, 7878, 7879
 7882, 7883, 7984, 7986, 7987, 7988, 7990, 7991, 7993, 8094, 8096, 8097, 8098, 8100, 8101, 8103
 8204, 8206, 8207, 8208, 8210, 8211, 8213, 8314, 8316, 8317, 8318, 8320, 8321, 8323, 8834, 8835
 8836, 8837, 8838, 8839, 8840, 8841, 8842, 8843, 8844, 8845, 8846, 8847, 8848, 8849, 8850, 8851
** ... 38 like lines cut
*Elset, elset=Set-5, generate
 1201,  1350,     1
*Nset, nset=Set-6
    31,    32,    33,    34,    37,    38,    39,    40,   392,   393,   412,   413,   423,   424,   425,   426
   427,   428,   429,   430,   457,   458,   459,   460,   461,   462,   463,   464,   465,   466,   467,   468
   469,   470,   471,   472,   473,   474,   475,   476,   477,   478,   479,   480,   481,   482,   483,   484
   485,   486,   487,   488,   489,   490,   491,   492,   493,   494,   495,   496,   497,   498,   499,   500
   501,   502,   503,   504,  1735,  1736,  1737,  1738,  1739,  1740,  1741,  1742,  1823,  1824,  1825,  1826
  1827,  1828,  1829,  1830,  1831,  1832,  1833,  1834,  1835,  1836,  1837,  1838,  1839,  1840,  1841,  1842
  1843,  1844,  1845,  1846,  1847,  1848,  1849,  1850,  1851,  1852,  1853,  1854,  1855,  1856,  1857,  1858
  1859,  1860,  1861,  1862,  1863,  1864,  1865,  1866,  1867,  1868,  1869,  1870,  1871,  1872,  1873,  1874
  1875,  1876,  1877,  1878,  1879,  1880,  1881,  1882,  1883,  1884,  1885,  1886,  1887,  1888,  1889,  1890
  1891,  1892,  1893,  1894,  1895,  1896,  1897,  1898,  1899,  1900,  1901,  1902,  1903,  1904,  1905,  1906
  1907,  1908,  1909,  1910,  1911,  1912,  1913,  1914,  1915,  1916,  1917,  1918,  1919,  1920,  1921,  1922
  1923,  1924,  1925,  1926,  1927,  1928,  1929,  1930,  1931,  1932,  1933,  1934,  1935,  1936,  1937,  1938
  3523,  3524,  3525,  3526,  3527,  3528,  3529,  3530,  3531,  3532,  3533,  3534,  3535,  3536,  3537,  3538
  3539,  3540,  3541,  3542,  3543,  3544,  3545,  3546,  3547,  3548,  3549,  3550,  3551,  3552,  3553,  3554
  3555,  3556,  3557,  3558,  3559,  3560,  3561,  3562,  3563,  3564,  3565,  3566,  3567,  3568,  3569,  3570
  3571,  3572,  3573,  3574,  3575,  3576,  3577,  3578,  3579,  3580,  3581,  3582,  3583,  3584,  3585,  3586
  3587,  3588,  3589,  3590,  3591,  3592,  3593,  3594,  8997,  9000,  9002,  9003,  9004,  9007,  9008,  9009
  9012,  9013,  9114,  9116,  9117,  9118,  9120,  9121,  9123,  9224,  9226,  9227,  9228,  9230,  9231,  9233
  9334,  9336,  9337,  9338,  9340,  9341,  9343,  9444,  9446,  9447,  9448,  9450,  9451,  9453,  9964,  9965
  9966,  9967,  9968,  9969,  9970,  9971,  9972,  9973,  9974,  9975,  9976,  9977,  9978,  9979,  9980,  9981
** ... 38 like lines cut
*Elset, elset=Set-6, generate
 1501,  1650,     1
*Nset, nset=Set-7
    37,    38,    39,    40,    43,    44,    45,    46,   466,   467,   486,   487,   497,   498,   499,   500
   501,   502,   503,   504,   531,   532,   533,   534,   535,   536,   537,   538,   539,   540,   541,   542
   543,   544,   545,   546,   547,   548,   549,   550,   551,   552,   553,   554,   555,   556,   557,   558
   559,   560,   561,   562,   563,   564,   565,   566,   567,   568,   569,   570,   571,   572,   573,   574
   575,   576,   577,   578,  1931,  1932,  1933,  1934,  1935,  1936,  1937,  1938,  2019,  2020,  2021,  2022
  2023,  2024,  2025,  2026,  2027,  2028,  2029,  2030,  2031,  2032,  2033,  2034,  2035,  2036,  2037,  2038
  2039,  2040,  2041,  2042,  2043,  2044,  2045,  2046,  2047,  2048,  2049,  2050,  2051,  2052,  2053,  2054
  2055,  2056,  2057,  2058,  2059,  2060,  2061,  2062,  2063,  2064,  2065,  2066,  2067,  2068,  2069,  2070
  2071,  2072,  2073,  2074,  2075,  2076,  2077,  2078,  2079,  2080,  2081,  2082,  2083,  2084,  2085,  2086
  2087,  2088,  2089,  2090,  2091,  2092,  2093,  2094,  2095,  2096,  2097,  2098,  2099,  2100,  2101,  2102
  2103,  2104,  2105,  2106,  2107,  2108,  2109,  2110,  2111,  2112,  2113,  2114,  2115,  2116,  2117,  2118
  2119,  2120,  2121,  2122,  2123,  2124,  2125,  2126,  2127,  2128,  2129,  2130,  2131,  2132,  2133,  2134
  3667,  3668,  3669,  3670,  3671,  3672,  3673,  3674,  3675,  3676,  3677,  3678,  3679,  3680,  3681,  3682
  3683,  3684,  3685,  3686,  3687,  3688,  3689,  3690,  3691,  3692,  3693,  3694,  3695,  3696,  3697,  3698
  3699,  3700,  3701,  3702,  3703,  3704,  3705,  3706,  3707,  3708,  3709,  3710,  3711,  3712,  3713,  3714
  3715,  3716,  3717,  3718,  3719,  3720,  3721,  3722,  3723,  3724,  3725,  3726,  3727,  3728,  3729,  3730
  3731,  3732,  3733,  3734,  3735,  3736,  3737,  3738, 10127, 10130, 10132, 10133, 10134, 10137, 10138, 10139
 10142, 10143, 10244, 10246, 10247, 10248, 10250, 10251, 10253, 10354, 10356, 10357, 10358, 10360, 10361, 10363
 10464, 10466, 10467, 10468, 10470, 10471, 10473, 10574, 10576, 10577, 10578, 10580, 10581, 10583, 11094, 11095
 11096, 11097, 11098, 11099, 11100, 11101, 11102, 11103, 11104, 11105, 11106, 11107, 11108, 11109, 11110, 11111
** ... 38 like lines cut
*Elset, elset=Set-7, generate
 1801,  1950,     1
*Nset, nset=Set-8
    43,    44,    45,    46,    49,    50,    51,    52,   540,   541,   560,   561,   571,   572,   573,   574
   575,   576,   577,   578,   605,   606,   607,   608,   609,   610,   611,   612,   613,   614,   615,   616
   617,   618,   619,   620,   621,   622,   623,   624,   625,   626,   627,   628,   629,   630,   631,   632
   633,   634,   635,   636,   637,   638,   639,   640,   641,   642,   643,   644,   645,   646,   647,   648
   649,   650,   651,   652,  2127,  2128,  2129,  2130,  2131,  2132,  2133,  2134,  2215,  2216,  2217,  2218
  2219,  2220,  2221,  2222,  2223,  2224,  2225,  2226,  2227,  2228,  2229,  2230,  2231,  2232,  2233,  2234
  2235,  2236,  2237,  2238,  2239,  2240,  2241,  2242,  2243,  2244,  2245,  2246,  2247,  2248,  2249,  2250
  2251,  2252,  2253,  2254,  2255,  2256,  2257,  2258,  2259,  2260,  2261,  2262,  2263,  2264,  2265,  2266
  2267,  2268,  2269,  2270,  2271,  2272,  2273,  2274,  2275,  2276,  2277,  2278,  2279,  2280,  2281,  2282
  2283,  2284,  2285,  2286,  2287,  2288,  2289,  2290,  2291,  2292,  2293,  2294,  2295,  2296,  2297,  2298
  2299,  2300,  2301,  2302,  2303,  2304,  2305,  2306,  2307,  2308,  2309,  2310,  2311,  2312,  2313,  2314
  2315,  2316,  2317,  2318,  2319,  2320,  2321,  2322,  2323,  2324,  2325,  2326,  2327,  2328,  2329,  2330
  3811,  3812,  3813,  3814,  3815,  3816,  3817,  3818,  3819,  3820,  3821,  3822,  3823,  3824,  3825,  3826
  3827,  3828,  3829,  3830,  3831,  3832,  3833,  3834,  3835,  3836,  3837,  3838,  3839,  3840,  3841,  3842
  3843,  3844,  3845,  3846,  3847,  3848,  3849,  3850,  3851,  3852,  3853,  3854,  3855,  3856,  3857,  3858
  3859,  3860,  3861,  3862,  3863,  3864,  3865,  3866,  3867,  3868,  3869,  3870,  3871,  3872,  3873,  3874
  3875,  3876,  3877,  3878,  3879,  3880,  3881,  3882, 11257, 11260, 11262, 11263, 11264, 11267, 11268, 11269
 11272, 11273, 11374, 11376, 11377, 11378, 11380, 11381, 11383, 11484, 11486, 11487, 11488, 11490, 11491, 11493
 11594, 11596, 11597, 11598, 11600, 11601, 11603, 11704, 11706, 11707, 11708, 11710, 11711, 11713, 12224, 12225
 12226, 12227, 12228, 12229, 12230, 12231, 12232, 12233, 12234, 12235, 12236, 12237, 12238, 12239, 12240, 12241
** ... 38 like lines cut
*Elset, elset=Set-8, generate
 2101,  2250,     1
*Nset, nset=Set-9
    49,    50,    51,    52,    55,    56,    57,    58,   614,   615,   634,   635,   645,   646,   647,   648
   649,   650,   651,   652,   679,   680,   681,   682,   683,   684,   685,   686,   687,   688,   689,   690
   691,   692,   693,   694,   695,   696,   697,   698,   699,   700,   701,   702,   703,   704,   705,   706
   707,   708,   709,   710,   711,   712,   713,   714,   715,   716,   717,   718,   719,   720,   721,   722
   723,   724,   725,   726,  2323,  2324,  2325,  2326,  2327,  2328,  2329,  2330,  2411,  2412,  2413,  2414
  2415,  2416,  2417,  2418,  2419,  2420,  2421,  2422,  2423,  2424,  2425,  2426,  2427,  2428,  2429,  2430
  2431,  2432,  2433,  2434,  2435,  2436,  2437,  2438,  2439,  2440,  2441,  2442,  2443,  2444,  2445,  2446
  2447,  2448,  2449,  2450,  2451,  2452,  2453,  2454,  2455,  2456,  2457,  2458,  2459,  2460,  2461,  2462
  2463,  2464,  2465,  2466,  2467,  2468,  2469,  2470,  2471,  2472,  2473,  2474,  2475,  2476,  2477,  2478
  2479,  2480,  2481,  2482,  2483,  2484,  2485,  2486,  2487,  2488,  2489,  2490,  2491,  2492,  2493,  2494
  2495,  2496,  2497,  2498,  2499,  2500,  2501,  2502,  2503,  2504,  2505,  2506,  2507,  2508,  2509,  2510
  2511,  2512,  2513,  2514,  2515,  2516,  2517,  2518,  2519,  2520,  2521,  2522,  2523,  2524,  2525,  2526
  3955,  3956,  3957,  3958,  3959,  3960,  3961,  3962,  3963,  3964,  3965,  3966,  3967,  3968,  3969,  3970
  3971,  3972,  3973,  3974,  3975,  3976,  3977,  3978,  3979,  3980,  3981,  3982,  3983,  3984,  3985,  3986
  3987,  3988,  3989,  3990,  3991,  3992,  3993,  3994,  3995,  3996,  3997,  3998,  3999,  4000,  4001,  4002
  4003,  4004,  4005,  4006,  4007,  4008,  4009,  4010,  4011,  4012,  4013,  4014,  4015,  4016,  4017,  4018
  4019,  4020,  4021,  4022,  4023,  4024,  4025,  4026, 12387, 12390, 12392, 12393, 12394, 12397, 12398, 12399
 12402, 12403, 12504, 12506, 12507, 12508, 12510, 12511, 12513, 12614, 12616, 12617, 12618, 12620, 12621, 12623
 12724, 12726, 12727, 12728, 12730, 12731, 12733, 12834, 12836, 12837, 12838, 12840, 12841, 12843, 13354, 13355
 13356, 13357, 13358, 13359, 13360, 13361, 13362, 13363, 13364, 13365, 13366, 13367, 13368, 13369, 13370, 13371
** ... 38 like lines cut
*Elset, elset=Set-9, generate
 2401,  2550,     1
*Nset, nset=Set-10
    55,    56,    57,    58,    61,    62,    63,    64,   688,   689,   708,   709,   719,   720,   721,   722
   723,   724,   725,   726,   753,   754,   755,   756,   757,   758,   759,   760,   761,   762,   763,   764
   765,   766,   767,   768,   769,   770,   771,   772,   773,   774,   775,   776,   777,   778,   779,   780
   781,   782,   783,   784,   785,   786,   787,   788,   789,   790,   791,   792,   793,   794,   795,   796
   797,   798,   799,   800,  2519,  2520,  2521,  2522,  2523,  2524,  2525,  2526,  2607,  2608,  2609,  2610
  2611,  2612,  2613,  2614,  2615,  2616,  2617,  2618,  2619,  2620,  2621,  2622,  2623,  2624,  2625,  2626
  2627,  2628,  2629,  2630,  2631,  2632,  2633,  2634,  2635,  2636,  2637,  2638,  2639,  2640,  2641,  2642
  2643,  2644,  2645,  2646,  2647,  2648,  2649,  2650,  2651,  2652,  2653,  2654,  2655,  2656,  2657,  2658
  2659,  2660,  2661,  2662,  2663,  2664,  2665,  2666,  2667,  2668,  2669,  2670,  2671,  2672,  2673,  2674
  2675,  2676,  2677,  2678,  2679,  2680,  2681,  2682,  2683,  2684,  2685,  2686,  2687,  2688,  2689,  2690
  2691,  2692,  2693,  2694,  2695,  2696,  2697,  2698,  2699,  2700,  2701,  2702,  2703,  2704,  2705,  2706
  2707,  2708,  2709,  2710,  2711,  2712,  2713,  2714,  2715,  2716,  2717,  2718,  2719,  2720,  2721,  2722
  4099,  4100,  4101,  4102,  4103,  4104,  4105,  4106,  4107,  4108,  4109,  4110,  4111,  4112,  4113,  4114
  4115,  4116,  4117,  4118,  4119,  4120,  4121,  4122,  4123,  4124,  4125,  4126,  4127,  4128,  4129,  4130
  4131,  4132,  4133,  4134,  4135,  4136,  4137,  4138,  4139,  4140,  4141,  4142,  4143,  4144,  4145,  4146
  4147,  4148,  4149,  4150,  4151,  4152,  4153,  4154,  4155,  4156,  4157,  4158,  4159,  4160,  4161,  4162
  4163,  4164,  4165,  4166,  4167,  4168,  4169,  4170, 13517, 13520, 13522, 13523, 13524, 13527, 13528, 13529
 13532, 13533, 13634, 13636, 13637, 13638, 13640, 13641, 13643, 13744, 13746, 13747, 13748, 13750, 13751, 13753
 13854, 13856, 13857, 13858, 13860, 13861, 13863, 13964, 13966, 13967, 13968, 13970, 13971, 13973, 14484, 14485
 14486, 14487, 14488, 14489, 14490, 14491, 14492, 14493, 14494, 14495, 14496, 14497, 14498, 14499, 14500, 14501
** ... 38 like lines cut
*Elset, elset=Set-10, generate
 2701,  2850,     1
*Nset, nset=Set-11
    2,    3,    5,    6,    9,   10,   11,   12,   69,   70,   71,   72,   73,   74,   75,   76
   77,   91,   92,   93,   94,   95,   96,   97,   98,   99,  119,  120,  121,  122,  123,  124
  125,  126,  127,  128,  129,  130,  131,  132,  133,  134,  135,  136,  137,  138,  139,  140
  141,  142,  143,  144,  145,  146,  147,  148,  149,  150,  151,  152,  153,  154,  155,  156
  157,  158,  159,  160,  899,  900,  901,  902,  903,  904,  905,  906,  907,  908,  909,  910
  911,  912,  913,  914,  915,  916,  917,  918,  919,  920,  921,  922,  923,  924,  925,  926
  927,  928,  929,  930,  931,  932,  933,  934,  951,  952,  953,  954,  955,  956,  957,  958
  959,  960,  961,  962,  963,  964,  965,  966,  967,  968,  969,  970,  971,  972,  973,  974
  975,  976,  977,  978,  979,  980,  981,  982,  983,  984,  985,  986,  987,  988,  989,  990
  991,  992,  993,  994,  995,  996,  997,  998,  999, 1000, 1001, 1002, 1003, 1004, 1005, 1006
 1007, 1008, 1009, 1010, 1011, 1012, 1013, 1014, 1015, 1016, 1017, 1018, 1019, 1020, 1021, 1022
 1023, 1024, 1025, 1026, 1027, 1028, 1029, 1030, 1031, 1032, 1033, 1034, 1035, 1036, 1037, 1038
 2875, 2876, 2877, 2878, 2879, 2880, 2881, 2882, 2883, 2884, 2885, 2886, 2887, 2888, 2889, 2890
 2891, 2892, 2893, 2894, 2895, 2896, 2897, 2898, 2899, 2900, 2901, 2902, 2903, 2904, 2905, 2906
 2907, 2908, 2909, 2910, 2911, 2912, 2913, 2914, 2915, 2916, 2917, 2918, 2919, 2920, 2921, 2922
 2923, 2924, 2925, 2926, 2927, 2928, 2929, 2930, 2931, 2932, 2933, 2934, 2935, 2936, 2937, 2938
 2939, 2940, 2941, 2942, 2943, 2944, 2945, 2946, 4264, 4267, 4269, 4270, 4285, 4286, 4288, 4303
 4304, 4306, 4321, 4322, 4324, 4339, 4340, 4342, 4357, 4358, 4360, 4375, 4376, 4378, 4393, 4394
 4396, 4411, 4412, 4414, 4429, 4430, 4432, 4447, 4449, 4450, 4460, 4461, 4471, 4472, 4482, 4483
 4493, 4494, 4504, 4505, 4515, 4516, 4526, 4527, 4537, 4538, 4548, 4549, 4564, 4566, 4567, 4577
** ... 38 like lines cut
*Elset, elset=Set-11, generate
 151,  300,    1
*Nset, nset=Set-12
    3,    6,   10,   12,   13,   15,   17,   18,  119,  120,  121,  122,  138,  139,  151,  152
  153,  154,  155,  156,  161,  162,  163,  164,  165,  166,  167,  168,  169,  181,  182,  183
  184,  185,  186,  187,  188,  189,  205,  206,  207,  208,  209,  210,  211,  212,  213,  214
  215,  216,  217,  218,  219,  220,  221,  222,  223,  224,  225,  226,  227,  228,  229,  230
  231,  232,  233,  234, 1031, 1032, 1033, 1034, 1035, 1036, 1037, 1038, 1111, 1112, 1113, 1114
 1115, 1116, 1117, 1118, 1119, 1120, 1121, 1122, 1123, 1124, 1125, 1126, 1127, 1128, 1129, 1130
 1131, 1132, 1133, 1134, 1135, 1136, 1137, 1138, 1139, 1140, 1141, 1142, 1143, 1144, 1145, 1146
 1155, 1156, 1157, 1158, 1159, 1160, 1161, 1162, 1163, 1164, 1165, 1166, 1167, 1168, 1169, 1170
 1171, 1172, 1173, 1174, 1175, 1176, 1177, 1178, 1179, 1180, 1181, 1182, 1183, 1184, 1185, 1186
 1187, 1188, 1189, 1190, 1191, 1192, 1193, 1194, 1195, 1196, 1197, 1198, 1199, 1200, 1201, 1202
 1203, 1204, 1205, 1206, 1207, 1208, 1209, 1210, 1211, 1212, 1213, 1214, 1215, 1216, 1217, 1218
 1219, 1220, 1221, 1222, 1223, 1224, 1225, 1226, 1227, 1228, 1229, 1230, 1231, 1232, 1233, 1234
 3019, 3020, 3021, 3022, 3023, 3024, 3025, 3026, 3027, 3028, 3029, 3030, 3031, 3032, 3033, 3034
 3035, 3036, 3037, 3038, 3039, 3040, 3041, 3042, 3043, 3044, 3045, 3046, 3047, 3048, 3049, 3050
 3051, 3052, 3053, 3054, 3055, 3056, 3057, 3058, 3059, 3060, 3061, 3062, 3063, 3064, 3065, 3066
 3067, 3068, 3069, 3070, 3071, 3072, 3073, 3074, 3075, 3076, 3077, 3078, 3079, 3080, 3081, 3082
 3083, 3084, 3085, 3086, 3087, 3088, 3089, 3090, 4432, 4549, 4666, 4783, 4900, 5045, 5048, 5049
 5050, 5053, 5054, 5055, 5058, 5059, 5147, 5149, 5150, 5152, 5153, 5155, 5243, 5245, 5246, 5248
 5249, 5251, 5339, 5341, 5342, 5344, 5345, 5347, 5435, 5437, 5438, 5440, 5441, 5443, 5458, 5459
 5461, 5476, 5477, 5479, 5494, 5495, 5497, 5512, 5513, 5515, 5530, 5531, 5533, 5548, 5549, 5551
** ... 38 like lines cut
*Elset, elset=Set-12, generate
 451,  600,    1
*Nset, nset=Set-13
   13,   15,   17,   18,   19,   21,   23,   24,  205,  206,  207,  208,  218,  219,  229,  230
  231,  232,  233,  234,  235,  236,  237,  238,  239,  240,  241,  242,  243,  255,  256,  257
  258,  259,  260,  261,  262,  263,  279,  280,  281,  282,  283,  284,  285,  286,  287,  288
  289,  290,  291,  292,  293,  294,  295,  296,  297,  298,  299,  300,  301,  302,  303,  304
  305,  306,  307,  308, 1227, 1228, 1229, 1230, 1231, 1232, 1233, 1234, 1307, 1308, 1309, 1310
 1311, 1312, 1313, 1314, 1315, 1316, 1317, 1318, 1319, 1320, 1321, 1322, 1323, 1324, 1325, 1326
 1327, 1328, 1329, 1330, 1331, 1332, 1333, 1334, 1335, 1336, 1337, 1338, 1339, 1340, 1341, 1342
 1351, 1352, 1353, 1354, 1355, 1356, 1357, 1358, 1359, 1360, 1361, 1362, 1363, 1364, 1365, 1366
 1367, 1368, 1369, 1370, 1371, 1372, 1373, 1374, 1375, 1376, 1377, 1378, 1379, 1380, 1381, 1382
 1383, 1384, 1385, 1386, 1387, 1388, 1389, 1390, 1391, 1392, 1393, 1394, 1395, 1396, 1397, 1398
 1399, 1400, 1401, 1402, 1403, 1404, 1405, 1406, 1407, 1408, 1409, 1410, 1411, 1412, 1413, 1414
 1415, 1416, 1417, 1418, 1419, 1420, 1421, 1422, 1423, 1424, 1425, 1426, 1427, 1428, 1429, 1430
 3163, 3164, 3165, 3166, 3167, 3168, 3169, 3170, 3171, 3172, 3173, 3174, 3175, 3176, 3177, 3178
 3179, 3180, 3181, 3182, 3183, 3184, 3185, 3186, 3187, 3188, 3189, 3190, 3191, 3192, 3193, 3194
 3195, 3196, 3197, 3198, 3199, 3200, 3201, 3202, 3203, 3204, 3205, 3206, 3207, 3208, 3209, 3210
 3211, 3212, 3213, 3214, 3215, 3216, 3217, 3218, 3219, 3220, 3221, 3222, 3223, 3224, 3225, 3226
 3227, 3228, 3229, 3230, 3231, 3232, 3233, 3234, 5623, 5733, 5843, 5953, 6063, 6199, 6202, 6203
 6204, 6207, 6208, 6209, 6212, 6213, 6295, 6297, 6298, 6300, 6301, 6303, 6385, 6387, 6388, 6390
 6391, 6393, 6475, 6477, 6478, 6480, 6481, 6483, 6565, 6567, 6568, 6570, 6571, 6573, 6588, 6589
 6591, 6606, 6607, 6609, 6624, 6625, 6627, 6642, 6643, 6645, 6660, 6661, 6663, 6678, 6679, 6681
** ... 38 like lines cut
*Elset, elset=Set-13, generate
 751,  900,    1
*Nset, nset=Set-14
   19,   21,   23,   24,   25,   27,   29,   30,  279,  280,  281,  282,  292,  293,  303,  304
  305,  306,  307,  308,  309,  310,  311,  312,  313,  314,  315,  316,  317,  329,  330,  331
  332,  333,  334,  335,  336,  337,  353,  354,  355,  356,  357,  358,  359,  360,  361,  362
  363,  364,  365,  366,  367,  368,  369,  370,  371,  372,  373,  374,  375,  376,  377,  378
  379,  380,  381,  382, 1423, 1424, 1425, 1426, 1427, 1428, 1429, 1430, 1503, 1504, 1505, 1506
 1507, 1508, 1509, 1510, 1511, 1512, 1513, 1514, 1515, 1516, 1517, 1518, 1519, 1520, 1521, 1522
 1523, 1524, 1525, 1526, 1527, 1528, 1529, 1530, 1531, 1532, 1533, 1534, 1535, 1536, 1537, 1538
 1547, 1548, 1549, 1550, 1551, 1552, 1553, 1554, 1555, 1556, 1557, 1558, 1559, 1560, 1561, 1562
 1563, 1564, 1565, 1566, 1567, 1568, 1569, 1570, 1571, 1572, 1573, 1574, 1575, 1576, 1577, 1578
 1579, 1580, 1581, 1582, 1583, 1584, 1585, 1586, 1587, 1588, 1589, 1590, 1591, 1592, 1593, 1594
 1595, 1596, 1597, 1598, 1599, 1600, 1601, 1602, 1603, 1604, 1605, 1606, 1607, 1608, 1609, 1610
 1611, 1612, 1613, 1614, 1615, 1616, 1617, 1618, 1619, 1620, 1621, 1622, 1623, 1624, 1625, 1626
 3307, 3308, 3309, 3310, 3311, 3312, 3313, 3314, 3315, 3316, 3317, 3318, 3319, 3320, 3321, 3322
 3323, 3324, 3325, 3326, 3327, 3328, 3329, 3330, 3331, 3332, 3333, 3334, 3335, 3336, 3337, 3338
 3339, 3340, 3341, 3342, 3343, 3344, 3345, 3346, 3347, 3348, 3349, 3350, 3351, 3352, 3353, 3354
 3355, 3356, 3357, 3358, 3359, 3360, 3361, 3362, 3363, 3364, 3365, 3366, 3367, 3368, 3369, 3370
 3371, 3372, 3373, 3374, 3375, 3376, 3377, 3378, 6753, 6863, 6973, 7083, 7193, 7329, 7332, 7333
 7334, 7337, 7338, 7339, 7342, 7343, 7425, 7427, 7428, 7430, 7431, 7433, 7515, 7517, 7518, 7520
 7521, 7523, 7605, 7607, 7608, 7610, 7611, 7613, 7695, 7697, 7698, 7700, 7701, 7703, 7718, 7719
 7721, 7736, 7737, 7739, 7754, 7755, 7757, 7772, 7773, 7775, 7790, 7791, 7793, 7808, 7809, 7811
** ... 38 like lines cut
*Elset, elset=Set-14, generate
 1051,  1200,     1
*Nset, nset=Set-15
   25,   27,   29,   30,   31,   33,   35,   36,  353,  354,  355,  356,  366,  367,  377,  378
  379,  380,  381,  382,  383,  384,  385,  386,  387,  388,  389,  390,  391,  403,  404,  405
  406,  407,  408,  409,  410,  411,  427,  428,  429,  430,  431,  432,  433,  434,  435,  436
  437,  438,  439,  440,  441,  442,  443,  444,  445,  446,  447,  448,  449,  450,  451,  452
  453,  454,  455,  456, 1619, 1620, 1621, 1622, 1623, 1624, 1625, 1626, 1699, 1700, 1701, 1702
 1703, 1704, 1705, 1706, 1707, 1708, 1709, 1710, 1711, 1712, 1713, 1714, 1715, 1716, 1717, 1718
 1719, 1720, 1721, 1722, 1723, 1724, 1725, 1726, 1727, 1728, 1729, 1730, 1731, 1732, 1733, 1734
 1743, 1744, 1745, 1746, 1747, 1748, 1749, 1750, 1751, 1752, 1753, 1754, 1755, 1756, 1757, 1758
 1759, 1760, 1761, 1762, 1763, 1764, 1765, 1766, 1767, 1768, 1769, 1770, 1771, 1772, 1773, 1774
 1775, 1776, 1777, 1778, 1779, 1780, 1781, 1782, 1783, 1784, 1785, 1786, 1787, 1788, 1789, 1790
 1791, 1792, 1793, 1794, 1795, 1796, 1797, 1798, 1799, 1800, 1801, 1802, 1803, 1804, 1805, 1806
 1807, 1808, 1809, 1810, 1811, 1812, 1813, 1814, 1815, 1816, 1817, 1818, 1819, 1820, 1821, 1822
 3451, 3452, 3453, 3454, 3455, 3456, 3457, 3458, 3459, 3460, 3461, 3462, 3463, 3464, 3465, 3466
 3467, 3468, 3469, 3470, 3471, 3472, 3473, 3474, 3475, 3476, 3477, 3478, 3479, 3480, 3481, 3482
 3483, 3484, 3485, 3486, 3487, 3488, 3489, 3490, 3491, 3492, 3493, 3494, 3495, 3496, 3497, 3498
 3499, 3500, 3501, 3502, 3503, 3504, 3505, 3506, 3507, 3508, 3509, 3510, 3511, 3512, 3513, 3514
 3515, 3516, 3517, 3518, 3519, 3520, 3521, 3522, 7883, 7993, 8103, 8213, 8323, 8459, 8462, 8463
 8464, 8467, 8468, 8469, 8472, 8473, 8555, 8557, 8558, 8560, 8561, 8563, 8645, 8647, 8648, 8650
 8651, 8653, 8735, 8737, 8738, 8740, 8741, 8743, 8825, 8827, 8828, 8830, 8831, 8833, 8848, 8849
 8851, 8866, 8867, 8869, 8884, 8885, 8887, 8902, 8903, 8905, 8920, 8921, 8923, 8938, 8939, 8941
** ... 38 like lines cut
*Elset, elset=Set-15, generate
 1351,  1500,     1
*Nset, nset=Set-16
    31,    33,    35,    36,    37,    39,    41,    42,   427,   428,   429,   430,   440,   441,   451,   452
   453,   454,   455,   456,   457,   458,   459,   460,   461,   462,   463,   464,   465,   477,   478,   479
   480,   481,   482,   483,   484,   485,   501,   502,   503,   504,   505,   506,   507,   508,   509,   510
   511,   512,   513,   514,   515,   516,   517,   518,   519,   520,   521,   522,   523,   524,   525,   526
   527,   528,   529,   530,  1815,  1816,  1817,  1818,  1819,  1820,  1821,  1822,  1895,  1896,  1897,  1898
  1899,  1900,  1901,  1902,  1903,  1904,  1905,  1906,  1907,  1908,  1909,  1910,  1911,  1912,  1913,  1914
  1915,  1916,  1917,  1918,  1919,  1920,  1921,  1922,  1923,  1924,  1925,  1926,  1927,  1928,  1929,  1930
  1939,  1940,  1941,  1942,  1943,  1944,  1945,  1946,  1947,  1948,  1949,  1950,  1951,  1952,  1953,  1954
  1955,  1956,  1957,  1958,  1959,  1960,  1961,  1962,  1963,  1964,  1965,  1966,  1967,  1968,  1969,  1970
  1971,  1972,  1973,  1974,  1975,  1976,  1977,  1978,  1979,  1980,  1981,  1982,  1983,  1984,  1985,  1986
  1987,  1988,  1989,  1990,  1991,  1992,  1993,  1994,  1995,  1996,  1997,  1998,  1999,  2000,  2001,  2002
  2003,  2004,  2005,  2006,  2007,  2008,  2009,  2010,  2011,  2012,  2013,  2014,  2015,  2016,  2017,  2018
  3595,  3596,  3597,  3598,  3599,  3600,  3601,  3602,  3603,  3604,  3605,  3606,  3607,  3608,  3609,  3610
  3611,  3612,  3613,  3614,  3615,  3616,  3617,  3618,  3619,  3620,  3621,  3622,  3623,  3624,  3625,  3626
  3627,  3628,  3629,  3630,  3631,  3632,  3633,  3634,  3635,  3636,  3637,  3638,  3639,  3640,  3641,  3642
  3643,  3644,  3645,  3646,  3647,  3648,  3649,  3650,  3651,  3652,  3653,  3654,  3655,  3656,  3657,  3658
  3659,  3660,  3661,  3662,  3663,  3664,  3665,  3666,  9013,  9123,  9233,  9343,  9453,  9589,  9592,  9593
  9594,  9597,  9598,  9599,  9602,  9603,  9685,  9687,  9688,  9690,  9691,  9693,  9775,  9777,  9778,  9780
  9781,  9783,  9865,  9867,  9868,  9870,  9871,  9873,  9955,  9957,  9958,  9960,  9961,  9963,  9978,  9979
  9981,  9996,  9997,  9999, 10014, 10015, 10017, 10032, 10033, 10035, 10050, 10051, 10053, 10068, 10069, 10071
** ... 38 like lines cut
*Elset, elset=Set-16, generate
 1651,  1800,     1
*Nset, nset=Set-17
    37,    39,    41,    42,    43,    45,    47,    48,   501,   502,   503,   504,   514,   515,   525,   526
   527,   528,   529,   530,   531,   532,   533,   534,   535,   536,   537,   538,   539,   551,   552,   553
   554,   555,   556,   557,   558,   559,   575,   576,   577,   578,   579,   580,   581,   582,   583,   584
   585,   586,   587,   588,   589,   590,   591,   592,   593,   594,   595,   596,   597,   598,   599,   600
   601,   602,   603,   604,  2011,  2012,  2013,  2014,  2015,  2016,  2017,  2018,  2091,  2092,  2093,  2094
  2095,  2096,  2097,  2098,  2099,  2100,  2101,  2102,  2103,  2104,  2105,  2106,  2107,  2108,  2109,  2110
  2111,  2112,  2113,  2114,  2115,  2116,  2117,  2118,  2119,  2120,  2121,  2122,  2123,  2124,  2125,  2126
  2135,  2136,  2137,  2138,  2139,  2140,  2141,  2142,  2143,  2144,  2145,  2146,  2147,  2148,  2149,  2150
  2151,  2152,  2153,  2154,  2155,  2156,  2157,  2158,  2159,  2160,  2161,  2162,  2163,  2164,  2165,  2166
  2167,  2168,  2169,  2170,  2171,  2172,  2173,  2174,  2175,  2176,  2177,  2178,  2179,  2180,  2181,  2182
  2183,  2184,  2185,  2186,  2187,  2188,  2189,  2190,  2191,  2192,  2193,  2194,  2195,  2196,  2197,  2198
  2199,  2200,  2201,  2202,  2203,  2204,  2205,  2206,  2207,  2208,  2209,  2210,  2211,  2212,  2213,  2214
  3739,  3740,  3741,  3742,  3743,  3744,  3745,  3746,  3747,  3748,  3749,  3750,  3751,  3752,  3753,  3754
  3755,  3756,  3757,  3758,  3759,  3760,  3761,  3762,  3763,  3764,  3765,  3766,  3767,  3768,  3769,  3770
  3771,  3772,  3773,  3774,  3775,  3776,  3777,  3778,  3779,  3780,  3781,  3782,  3783,  3784,  3785,  3786
  3787,  3788,  3789,  3790,  3791,  3792,  3793,  3794,  3795,  3796,  3797,  3798,  3799,  3800,  3801,  3802
  3803,  3804,  3805,  3806,  3807,  3808,  3809,  3810, 10143, 10253, 10363, 10473, 10583, 10719, 10722, 10723
 10724, 10727, 10728, 10729, 10732, 10733, 10815, 10817, 10818, 10820, 10821, 10823, 10905, 10907, 10908, 10910
 10911, 10913, 10995, 10997, 10998, 11000, 11001, 11003, 11085, 11087, 11088, 11090, 11091, 11093, 11108, 11109
 11111, 11126, 11127, 11129, 11144, 11145, 11147, 11162, 11163, 11165, 11180, 11181, 11183, 11198, 11199, 11201
** ... 38 like lines cut
*Elset, elset=Set-17, generate
 1951,  2100,     1
*Nset, nset=Set-18
    43,    45,    47,    48,    49,    51,    53,    54,   575,   576,   577,   578,   588,   589,   599,   600
   601,   602,   603,   604,   605,   606,   607,   608,   609,   610,   611,   612,   613,   625,   626,   627
   628,   629,   630,   631,   632,   633,   649,   650,   651,   652,   653,   654,   655,   656,   657,   658
   659,   660,   661,   662,   663,   664,   665,   666,   667,   668,   669,   670,   671,   672,   673,   674
   675,   676,   677,   678,  2207,  2208,  2209,  2210,  2211,  2212,  2213,  2214,  2287,  2288,  2289,  2290
  2291,  2292,  2293,  2294,  2295,  2296,  2297,  2298,  2299,  2300,  2301,  2302,  2303,  2304,  2305,  2306
  2307,  2308,  2309,  2310,  2311,  2312,  2313,  2314,  2315,  2316,  2317,  2318,  2319,  2320,  2321,  2322
  2331,  2332,  2333,  2334,  2335,  2336,  2337,  2338,  2339,  2340,  2341,  2342,  2343,  2344,  2345,  2346
  2347,  2348,  2349,  2350,  2351,  2352,  2353,  2354,  2355,  2356,  2357,  2358,  2359,  2360,  2361,  2362
  2363,  2364,  2365,  2366,  2367,  2368,  2369,  2370,  2371,  2372,  2373,  2374,  2375,  2376,  2377,  2378
  2379,  2380,  2381,  2382,  2383,  2384,  2385,  2386,  2387,  2388,  2389,  2390,  2391,  2392,  2393,  2394
  2395,  2396,  2397,  2398,  2399,  2400,  2401,  2402,  2403,  2404,  2405,  2406,  2407,  2408,  2409,  2410
  3883,  3884,  3885,  3886,  3887,  3888,  3889,  3890,  3891,  3892,  3893,  3894,  3895,  3896,  3897,  3898
  3899,  3900,  3901,  3902,  3903,  3904,  3905,  3906,  3907,  3908,  3909,  3910,  3911,  3912,  3913,  3914
  3915,  3916,  3917,  3918,  3919,  3920,  3921,  3922,  3923,  3924,  3925,  3926,  3927,  3928,  3929,  3930
  3931,  3932,  3933,  3934,  3935,  3936,  3937,  3938,  3939,  3940,  3941,  3942,  3943,  3944,  3945,  3946
  3947,  3948,  3949,  3950,  3951,  3952,  3953,  3954, 11273, 11383, 11493, 11603, 11713, 11849, 11852, 11853
 11854, 11857, 11858, 11859, 11862, 11863, 11945, 11947, 11948, 11950, 11951, 11953, 12035, 12037, 12038, 12040
 12041, 12043, 12125, 12127, 12128, 12130, 12131, 12133, 12215, 12217, 12218, 12220, 12221, 12223, 12238, 12239
 12241, 12256, 12257, 12259, 12274, 12275, 12277, 12292, 12293, 12295, 12310, 12311, 12313, 12328, 12329, 12331
** ... 38 like lines cut
*Elset, elset=Set-18, generate
 2251,  2400,     1
*Nset, nset=Set-19
    49,    51,    53,    54,    55,    57,    59,    60,   649,   650,   651,   652,   662,   663,   673,   674
   675,   676,   677,   678,   679,   680,   681,   682,   683,   684,   685,   686,   687,   699,   700,   701
   702,   703,   704,   705,   706,   707,   723,   724,   725,   726,   727,   728,   729,   730,   731,   732
   733,   734,   735,   736,   737,   738,   739,   740,   741,   742,   743,   744,   745,   746,   747,   748
   749,   750,   751,   752,  2403,  2404,  2405,  2406,  2407,  2408,  2409,  2410,  2483,  2484,  2485,  2486
  2487,  2488,  2489,  2490,  2491,  2492,  2493,  2494,  2495,  2496,  2497,  2498,  2499,  2500,  2501,  2502
  2503,  2504,  2505,  2506,  2507,  2508,  2509,  2510,  2511,  2512,  2513,  2514,  2515,  2516,  2517,  2518
  2527,  2528,  2529,  2530,  2531,  2532,  2533,  2534,  2535,  2536,  2537,  2538,  2539,  2540,  2541,  2542
  2543,  2544,  2545,  2546,  2547,  2548,  2549,  2550,  2551,  2552,  2553,  2554,  2555,  2556,  2557,  2558
  2559,  2560,  2561,  2562,  2563,  2564,  2565,  2566,  2567,  2568,  2569,  2570,  2571,  2572,  2573,  2574
  2575,  2576,  2577,  2578,  2579,  2580,  2581,  2582,  2583,  2584,  2585,  2586,  2587,  2588,  2589,  2590
  2591,  2592,  2593,  2594,  2595,  2596,  2597,  2598,  2599,  2600,  2601,  2602,  2603,  2604,  2605,  2606
  4027,  4028,  4029,  4030,  4031,  4032,  4033,  4034,  4035,  4036,  4037,  4038,  4039,  4040,  4041,  4042
  4043,  4044,  4045,  4046,  4047,  4048,  4049,  4050,  4051,  4052,  4053,  4054,  4055,  4056,  4057,  4058
  4059,  4060,  4061,  4062,  4063,  4064,  4065,  4066,  4067,  4068,  4069,  4070,  4071,  4072,  4073,  4074
  4075,  4076,  4077,  4078,  4079,  4080,  4081,  4082,  4083,  4084,  4085,  4086,  4087,  4088,  4089,  4090
  4091,  4092,  4093,  4094,  4095,  4096,  4097,  4098, 12403, 12513, 12623, 12733, 12843, 12979, 12982, 12983
 12984, 12987, 12988, 12989, 12992, 12993, 13075, 13077, 13078, 13080, 13081, 13083, 13165, 13167, 13168, 13170
 13171, 13173, 13255, 13257, 13258, 13260, 13261, 13263, 13345, 13347, 13348, 13350, 13351, 13353, 13368, 13369
 13371, 13386, 13387, 13389, 13404, 13405, 13407, 13422, 13423, 13425, 13440, 13441, 13443, 13458, 13459, 13461
** ... 38 like lines cut
*Elset, elset=Set-19, generate
 2551,  2700,     1
*Nset, nset=Set-20
    55,    57,    59,    60,    61,    63,    65,    66,   723,   724,   725,   726,   736,   737,   747,   748
   749,   750,   751,   752,   753,   754,   755,   756,   757,   758,   759,   760,   761,   773,   774,   775
   776,   777,   778,   779,   780,   781,   797,   798,   799,   800,   801,   802,   803,   804,   805,   806
   807,   808,   809,   810,   811,   812,   813,   814,   815,   816,   817,   818,   819,   820,   821,   822
   823,   824,   825,   826,  2599,  2600,  2601,  2602,  2603,  2604,  2605,  2606,  2679,  2680,  2681,  2682
  2683,  2684,  2685,  2686,  2687,  2688,  2689,  2690,  2691,  2692,  2693,  2694,  2695,  2696,  2697,  2698
  2699,  2700,  2701,  2702,  2703,  2704,  2705,  2706,  2707,  2708,  2709,  2710,  2711,  2712,  2713,  2714
  2723,  2724,  2725,  2726,  2727,  2728,  2729,  2730,  2731,  2732,  2733,  2734,  2735,  2736,  2737,  2738
  2739,  2740,  2741,  2742,  2743,  2744,  2745,  2746,  2747,  2748,  2749,  2750,  2751,  2752,  2753,  2754
  2755,  2756,  2757,  2758,  2759,  2760,  2761,  2762,  2763,  2764,  2765,  2766,  2767,  2768,  2769,  2770
  2771,  2772,  2773,  2774,  2775,  2776,  2777,  2778,  2779,  2780,  2781,  2782,  2783,  2784,  2785,  2786
  2787,  2788,  2789,  2790,  2791,  2792,  2793,  2794,  2795,  2796,  2797,  2798,  2799,  2800,  2801,  2802
  4171,  4172,  4173,  4174,  4175,  4176,  4177,  4178,  4179,  4180,  4181,  4182,  4183,  4184,  4185,  4186
  4187,  4188,  4189,  4190,  4191,  4192,  4193,  4194,  4195,  4196,  4197,  4198,  4199,  4200,  4201,  4202
  4203,  4204,  4205,  4206,  4207,  4208,  4209,  4210,  4211,  4212,  4213,  4214,  4215,  4216,  4217,  4218
  4219,  4220,  4221,  4222,  4223,  4224,  4225,  4226,  4227,  4228,  4229,  4230,  4231,  4232,  4233,  4234
  4235,  4236,  4237,  4238,  4239,  4240,  4241,  4242, 13533, 13643, 13753, 13863, 13973, 14109, 14112, 14113
 14114, 14117, 14118, 14119, 14122, 14123, 14205, 14207, 14208, 14210, 14211, 14213, 14295, 14297, 14298, 14300
 14301, 14303, 14385, 14387, 14388, 14390, 14391, 14393, 14475, 14477, 14478, 14480, 14481, 14483, 14498, 14499
 14501, 14516, 14517, 14519, 14534, 14535, 14537, 14552, 14553, 14555, 14570, 14571, 14573, 14588, 14589, 14591
** ... 38 like lines cut
*Elset, elset=Set-20, generate
 2851,  3000,     1
** Section: Section-0times
*Solid Section, elset=Set-1, material=Material-0times-30min
,
** Section: Section-1times
*Solid Section, elset=Set-11, material=Material-1times-30min
,
** Section: Section-0times
*Solid Section, elset=Set-2, material=Material-0times-30min
,
** Section: Section-0times
*Solid Section, elset=Set-12, material=Material-0times-30min
,
** Section: Section-0times
*Solid Section, elset=Set-3, material=Material-0times-30min
,
** Section: Section-1times
*Solid Section, elset=Set-13, material=Material-1times-30min
,
** Section: Section-0times
*Solid Section, elset=Set-4, material=Material-0times-30min
,
** Section: Section-1times
*Solid Section, elset=Set-14, material=Material-1times-30min
,
** Section: Section-0times
*Solid Section, elset=Set-5, material=Material-0times-30min
,
** Section: Section-1times
*Solid Section, elset=Set-15, material=Material-1times-30min
,
** Section: Section-0times
*Solid Section, elset=Set-6, material=Material-0times-30min
,
** Section: Section-1times
*Solid Section, elset=Set-16, material=Material-1times-30min
,
** Section: Section-0times
*Solid Section, elset=Set-7, material=Material-0times-30min
,
** Section: Section-0times
*Solid Section, elset=Set-17, material=Material-0times-30min
,
** Section: Section-0times
*Solid Section, elset=Set-8, material=Material-0times-30min
,
** Section: Section-1times
*Solid Section, elset=Set-18, material=Material-1times-30min
,
** Section: Section-0times
*Solid Section, elset=Set-9, material=Material-0times-30min
,
** Section: Section-0times
*Solid Section, elset=Set-19, material=Material-0times-30min
,
** Section: Section-0times
*Solid Section, elset=Set-10, material=Material-0times-30min
,
** Section: Section-0times
*Solid Section, elset=Set-20, material=Material-0times-30min
,
*End Instance
**  
*Nset, nset=Set-1, instance=Part-21-1, generate
     1,  15613,      1
*Elset, elset=Set-1, instance=Part-21-1, generate
    1,  3000,     1
*Nset, nset=Set-2, instance=Part-21-1
    1,    2,    5,    8,   67,   68,   89,   90,  115,  116,  117,  118,  123,  124,  125,  126
  935,  936,  937,  938,  939,  940,  941,  942, 4246, 4247, 4251, 4252, 4257, 4258, 4261, 4265
 4266, 4269, 4436, 4437, 4438, 4443, 4444, 4448, 4449, 4553, 4554, 4555, 4560, 4561, 4565, 4566
 4670, 4671, 4672, 4677, 4678, 4682, 4683, 4787, 4788, 4789, 4794, 4795, 4799, 4800
*Elset, elset=Set-2, instance=Part-21-1
   1,   2,   3,  31,  32,  33,  61,  62,  63,  91,  92,  93, 121, 122, 123
*Nset, nset=Set-3, instance=Part-21-1
    2,    5,    9,   11,  123,  124,  125,  126,  127,  128,  140,  141,  157,  158,  159,  160
 1023, 1024, 1025, 1026, 1027, 1028, 1029, 1030, 4269, 4449, 4566, 4683, 4800, 4903, 4904, 4907
 4911, 4912, 4915, 4919, 4920, 4923, 5062, 5063, 5067, 5068, 5072, 5073, 5158, 5159, 5163, 5164
 5168, 5169, 5254, 5255, 5259, 5260, 5264, 5265, 5350, 5351, 5355, 5356, 5360, 5361
*Elset, elset=Set-3, instance=Part-21-1
 151, 152, 153, 181, 182, 183, 211, 212, 213, 241, 242, 243, 271, 272, 273
*Nset, nset=Set-4, instance=Part-21-1
    1,    8,  115,  116,  117,  118, 4252, 4438, 4555, 4672, 4789
*Elset, elset=Set-4, instance=Part-21-1, generate
   1,  121,   30
*Nset, nset=Set-5, instance=Part-21-1
    5,    8,   89,   90, 4787, 4794, 4799
*Elset, elset=Set-5, instance=Part-21-1, generate
 121,  123,    1
*End Assembly
*Amplitude, name=Amp-1
             0.,              0.,              1.,              1.
** 
** MATERIALS
** 
*Material, name=Material-0times-30min
*Conductivity
167000.,
*Density
 1e-09,
*Elastic
 0.22098, 0.3
*Expansion
 0.018938,
*Specific Heat
 8.96e+08,
*Material, name=Material-1times-30min
*Conductivity
167000.,
*Density
 1e-09,
*Elastic
 1.3413, 0.3
*Expansion
 0.021223,
*Specific Heat
 8.96e+08,
** 
** BOUNDARY CONDITIONS
** 
** Name: BC-1 Type: Temperature
*Boundary
Set-1, 11, 11
** Name: BC-2 Type: Symmetry/Antisymmetry/Encastre
*Boundary
Set-2, ZSYMM
** Name: BC-3 Type: Symmetry/Antisymmetry/Encastre
*Boundary
Set-3, ZSYMM
** Name: BC-4 Type: Symmetry/Antisymmetry/Encastre
*Boundary
Set-4, YSYMM
** Name: BC-5 Type: Symmetry/Antisymmetry/Encastre
*Boundary
Set-5, XSYMM
** ----------------------------------------------------------------
** 
** STEP: Step-1
** 
*Step, name=Step-1, nlgeom=YES
*Coupled Temperature-displacement, creep=none, deltmx=15.
0.01, 1., 1e-06, 1.
** 
** BOUNDARY CONDITIONS
** 
** Name: BC-1 Type: Temperature
*Boundary, amplitude=Amp-1
Set-1, 11, 11, 100.
** 
** OUTPUT REQUESTS
** 
*Restart, write, frequency=0
** 
** FIELD OUTPUT: F-Output-1
** 
*Output, field, variable=PRESELECT
** 
** HISTORY OUTPUT: H-Output-1
** 
*Output, history, variable=PRESELECT
*End Step
