 Abaqus/Standard 2023.HF2                  DATE 27-10ÔÂ-2023 TIME 16:29:08
 SUMMARY OF JOB INFORMATION:
 STEP  INC ATT SEVERE EQUIL TOTAL  TOTAL      STEP       INC OF       DOF    IF
               DISCON ITERS ITERS  TIME/    TIME/LPF    TIME/LPF    MONITOR RIKS
               ITERS               FREQ
   1     1   1     0     4     4  0.0100     0.0100     0.01000   
   1     2   1     0     2     2  0.0200     0.0200     0.01000   
   1     3   1     0     2     2  0.0300     0.0300     0.01000   
   1     4   1     0     2     2  0.0450     0.0450     0.01500   
   1     5   1     0     3     3  0.0675     0.0675     0.02250   
   1     6   1     0     4     4  0.101      0.101      0.03375   
   1     7   1     0     5     5  0.152      0.152      0.05063   
   1     8   1     0     5     5  0.203      0.203      0.05063   
   1     9   1     0     5     5  0.253      0.253      0.05063   
   1    10   1     0     5     5  0.304      0.304      0.05063   
   1    11   1     0     6     6  0.354      0.354      0.05063   
   1    12   1     0     8     8  0.405      0.405      0.05063   
   1    13   1     0     4     4  0.456      0.456      0.05063   
   1    14   1     0     4     4  0.506      0.506      0.05063   
   1    15   1     0     5     5  0.582      0.582      0.07594   
   1    16   1     0     6     6  0.658      0.658      0.07594   
   1    17   1     0     5     5  0.734      0.734      0.07594   
   1    18   1     0     6     6  0.810      0.810      0.07594   
   1    19   1     0     5     5  0.886      0.886      0.07594   
   1    20   1     0     5     5  0.962      0.962      0.07594   
   1    21   1     0     4     4  1.00       1.00       0.03812   
                          
 THE ANALYSIS HAS COMPLETED SUCCESSFULLY
